*KEYWORD
$
$ File created by CUBIT version 13.0 revised 2011-03-24 12:53:02 -0600 (Thu, 24 Mar 2011)
$...>....1....>....2....>....3....>....4....>....5....>....6....>....7....>....8
*TITLE
$ cubit(C:/Users/Freiman/Desktop/hex.k): 04/18/2012: 15:39:00
*PART
Block 1
$    pid     sid     mid   eosid    hgid    grav  adpopt    tmid
       1       1     100       0       0       0       0     100
*SECTION_SOLID
       1
*MAT_ELASTIC
     100  7e-006  206800    0.29     0.0     0.0       0
*MAT_THERMAL_ISOTROPIC
     100     0.0     0.0     0.0     0.0     0.0
     500   0.045
*NODE
$    nid               x               y               z      tc      rc
      22              -5              -5               5       0       0
     243              -5              -5               4       0       0
     423              -5              -4               4       0       0
      31              -5              -4               5       0       0
      32              -4              -5               5       0       0
     261              -4              -5               4       0       0
     603              -4              -4               4       0       0
     113              -4              -4               5       0       0
     244              -5              -5               3       0       0
     424              -5              -4               3       0       0
     262              -4              -5               3       0       0
     604              -4              -4               3       0       0
     245              -5              -5               2       0       0
     425              -5              -4               2       0       0
     263              -4              -5               2       0       0
     605              -4              -4               2       0       0
     246              -5              -5               1       0       0
     426              -5              -4               1       0       0
     264              -4              -5               1       0       0
     606              -4              -4               1       0       0
$ ... 1311 like lines cut
$
$...>....1....>....2....>....3....>....4....>....5....>....6....>....7....>....8
$    eid     pid      n1      n2      n3      n4      n5      n6      n7      n8
*ELEMENT_SOLID
       1       1      22     243     423      31      32     261     603     113
       2       1     243     244     424     423     261     262     604     603
       3       1     244     245     425     424     262     263     605     604
       4       1     245     246     426     425     263     264     606     605
       5       1     246     247     427     426     264     265     607     606
       6       1     247     248     428     427     265     266     608     607
       7       1     248     249     429     428     266     267     609     608
       8       1     249     250     430     429     267     268     610     609
       9       1     250     251     431     430     268     269     611     610
      10       1     251     133     144     431     269     142     242     611
      11       1      31     423     414      30     113     603     612     114
      12       1     423     424     415     414     603     604     613     612
      13       1     424     425     416     415     604     605     614     613
      14       1     425     426     417     416     605     606     615     614
      15       1     426     427     418     417     606     607     616     615
      16       1     427     428     419     418     607     608     617     616
      17       1     428     429     420     419     608     609     618     617
      18       1     429     430     421     420     609     610     619     618
      19       1     430     431     422     421     610     611     620     619
      20       1     431     144     145     422     611     242     241     620
$ ... 980 like lines cut
*END
