*KEYWORD
$
$ File created by CUBIT version 13.0 revised 2011-03-24 12:53:02 -0600 (Thu, 24 Mar 2011)
$...>....1....>....2....>....3....>....4....>....5....>....6....>....7....>....8
*TITLE
$ cubit(C:/Users/Freiman/Desktop/hex.k): 04/18/2012: 15:39:00
*PART
Block 1
$    pid     sid     mid   eosid    hgid    grav  adpopt    tmid
       1       1     100       0       0       0       0     100
*SECTION_SOLID
       1
*MAT_ELASTIC
     100  7e-006  206800    0.29     0.0     0.0       0
*MAT_THERMAL_ISOTROPIC
     100     0.0     0.0     0.0     0.0     0.0
     500   0.045
*NODE
$    nid               x               y               z      tc      rc
    1056              -5              -5               5       0       0
     980              -5              -5               4       0       0
     907              -5              -4               4       0       0
     991              -5              -4               5       0       0
    1121              -4              -5               5       0       0
    1055              -4              -5               4       0       0
     990              -4              -4               4       0       0
    1066              -4              -4               5       0       0
     897              -5              -5               3       0       0
     818              -5              -4               3       0       0
     979              -4              -5               3       0       0
     906              -4              -4               3       0       0
     809              -5              -5               2       0       0
     726              -5              -4               2       0       0
     896              -4              -5               2       0       0
     817              -4              -4               2       0       0
     718              -5              -5               1       0       0
     633              -5              -4               1       0       0
     808              -4              -5               1       0       0
     725              -4              -4               1       0       0
$ ... 1311 like lines cut
