*KEYWORD
$
$ File created by CUBIT version 13.0 revised 2011-03-24 12:53:02 -0600 (Thu, 24 Mar 2011)
$...>....1....>....2....>....3....>....4....>....5....>....6....>....7....>....8
*TITLE
$ cubit(C:/Users/Freiman/Desktop/tet.k): 04/18/2012: 15:40:06
*PART
Block 1
$    pid     sid     mid   eosid    hgid    grav  adpopt    tmid
       1       1     100       0       0       0       0     100
*SECTION_SOLID
       1
*MAT_ELASTIC
     100  7e-006  206800    0.29     0.0     0.0       0
*MAT_THERMAL_ISOTROPIC
     100     0.0     0.0     0.0     0.0     0.0
     500   0.045
*NODE
$    nid               x               y               z      tc      rc
    1778        0.863253       -0.269511          1.1641       0       0
    1779        0.360709        0.817358         1.54289       0       0
    1780       -0.154995         0.62214        0.456197       0       0
    1781       -0.178409       -0.885233         1.12688       0       0
    1782       -0.590692       -0.323724          2.3364       0       0
    1783        0.384891       -0.737445         2.37101       0       0
    1784        0.633897        0.247979          2.6136       0       0
    1785         1.62453       0.0960963         2.31235       0       0
    1786          1.9352        0.216502         1.24208       0       0
    1787         1.20883        0.347761       -0.561458       0       0
    1788         2.25308        0.339703        0.146973       0       0
    1789         1.47995       -0.707463       0.0453182       0       0
    1790        0.942833        -1.49535         1.67521       0       0
    1791         2.02374        -1.23878          1.1202       0       0
    1792         3.17054          -3.183        -2.57419       0       0
    1793          2.2929        -3.28121        -1.43619       0       0
    1794         2.64177         -4.1698        -1.85982       0       0
    1795         3.75868        -4.04175        -1.07858       0       0
    1796       -0.865084       -0.105373         -2.0141       0       0
    1797        -1.14336        -1.00313        -1.21581       0       0
$ ... 980 like lines cut
$
$...>....1....>....2....>....3....>....4....>....5....>....6....>....7....>....8
$    eid     pid      n1      n2      n3      n4      n5      n6      n7      n8
*ELEMENT_SOLID
       1       1    1778    1779    1780    1781    1781    1781    1781    1781
       2       1    1778    1782    1783    1784    1784    1784    1784    1784
       3       1    1778    1779    1784    1785    1785    1785    1785    1785
       4       1    1786    1787    1788    1789    1789    1789    1789    1789
       5       1    1778    1790    1789    1791    1791    1791    1791    1791
       6       1    1792    1793    1794    1795    1795    1795    1795    1795
       7       1    1796    1797    1798    1799    1799    1799    1799    1799
       8       1    1796    1797    1800    1801    1801    1801    1801    1801
       9       1    1796    1801    1800    1802    1802    1802    1802    1802
      10       1    1796    1803    1801    1804    1804    1804    1804    1804
      11       1    1796    1804    1805    1806    1806    1806    1806    1806
      12       1    1796    1798    1803    1807    1807    1807    1807    1807
      13       1    1796    1803    1804    1806    1806    1806    1806    1806
      14       1    1796    1805    1808    1809    1809    1809    1809    1809
      15       1    1810    1811    1812    1813    1813    1813    1813    1813
      16       1    1814    1815    1816    1817    1817    1817    1817    1817
      17       1    1810    1812    1818    1819    1819    1819    1819    1819
      18       1    1810    1820    1819    1821    1821    1821    1821    1821
      19       1    1810    1822    1821    1823    1823    1823    1823    1823
      20       1    1810    1813    1812    1824    1824    1824    1824    1824
$ ... 4522 like lines cut
*END
