*KEYWORD
$
$ File created by CUBIT version 13.0 revised 2011-03-24 12:53:02 -0600 (Thu, 24 Mar 2011)
$...>....1....>....2....>....3....>....4....>....5....>....6....>....7....>....8
*TITLE
$ cubit(C:/Users/Freiman/Desktop/triangle.k): 04/18/2012: 15:36:16
*PART
Block 1
$    pid     sid     mid   eosid    hgid    grav  adpopt    tmid
       1       1     100       0       0       0       0     100
*SECTION_SHELL
       1

*MAT_ELASTIC
     100  7e-006  206800    0.29     0.0     0.0       0
*MAT_THERMAL_ISOTROPIC
     100     0.0     0.0     0.0     0.0     0.0
     500   0.045
*NODE
$    nid               x               y               z      tc      rc
     222         2.48358         2.42584               0       0       0
     199         2.04414         3.20503               0       0       0
     223         1.53841         2.19359               0       0       0
     124               4               5               0       0       0
     194          4.3446         4.34578               0       0       0
     122               5               5               0       0       0
     156               5              -1               0       0       0
     188         4.10473        -1.52239               0       0       0
     155               5              -2               0       0       0
     180        -1.52239        -4.10473               0       0       0
     147              -1              -5               0       0       0
     181       -0.510084        -4.11354               0       0       0
     224        0.465255          2.3498               0       0       0
     200          1.0159         3.20862               0       0       0
     164         1.51599         4.11496               0       0       0
     127               1               5               0       0       0
     165         0.50702         4.12027               0       0       0
     168        -2.52303         4.12814               0       0       0
     169        -3.52405         4.19939               0       0       0
     204        -3.13667         3.17765               0       0       0
$ ... 117 like lines cut
$
$...>....1....>....2....>....3....>....4....>....5....>....6....>....7....>....8
$    eid     pid      n1      n2      n3      n4      n5      n6      n7      n8
*ELEMENT_SHELL
       1       1     222     199     223     223
       2       1     124     194     122     122
       3       1     156     188     155     155
       4       1     180     147     181     181
       5       1     224     223     200     200
       6       1     164     127     165     165
       7       1     168     169     204     204
       8       1     137     172     136     136
       9       1     136     171     135     135
      10       1     168     131     169     169
      11       1     134     195     123     123
      12       1     167     130     168     168
      13       1     166     165     128     128
      14       1     172     137     173     173
      15       1     176     177     210     210
      16       1     174     173     138     138
      17       1     147     180     146     146
      18       1     146     179     145     145
      19       1     176     141     177     177
      20       1     144     196     133     133
$ ... 212 like lines cut
*END
